powerfulcases/cases/matpower/case2746wop/case2746wop.raw
0, 100, 33, 0, 0, 60  / 28-Jan-2026 21:51:30 - MATPOWER 8.1


     1, 'BUS 1       ',       220, 1,    1,    1, 1,   1.1003396,  -5.8041144, 1.11, 0.95, 1.11, 0.95
     2, 'BUS 2       ',       220, 1,    1,    1, 1,   1.1039808,  -2.5080831, 1.11, 0.95, 1.11, 0.95
     3, 'BUS 3       ',       220, 1,    1,    1, 1,   1.0727181,   -22.67999, 1.11, 0.95, 1.11, 0.95
     4, 'BUS 4       ',       220, 1,    1,    1, 1,   1.0979142,  -8.8291158, 1.11, 0.95, 1.11, 0.95
     5, 'BUS 5       ',       220, 1,    1,    1, 1,   1.0979424,  -8.8358003, 1.11, 0.95, 1.11, 0.95
     6, 'BUS 6       ',       220, 1,    1,    1, 1,   1.0787899,  -16.503557, 1.11, 0.95, 1.11, 0.95
     7, 'BUS 7       ',       220, 1,    1,    1, 1,   1.0788162,  -16.497825, 1.11, 0.95, 1.11, 0.95
     8, 'BUS 8       ',       400, 1,    1,    1, 1,    1.029636,   -14.94355, 1.05, 0.95, 1.05, 0.95
     9, 'BUS 9       ',       400, 1,    1,    1, 1,   1.0296346,  -14.945198, 1.05, 0.95, 1.05, 0.95
    10, 'BUS 10      ',       220, 1,    1,    1, 1,   1.0764851,  -16.871989, 1.11, 0.95, 1.11, 0.95
    11, 'BUS 11      ',       220, 1,    1,    1, 1,   1.0764187,  -16.885088, 1.11, 0.95, 1.11, 0.95
    12, 'BUS 12      ',       220, 1,    1,    1, 1,   1.0764286,  -16.878588, 1.11, 0.95, 1.11, 0.95
    13, 'BUS 13      ',       400, 1,    1,    1, 1,   1.0247184,  -13.167523, 1.05, 0.95, 1.05, 0.95
    14, 'BUS 14      ',       400, 1,    1,    1, 1,   1.0248019,  -13.162182, 1.05, 0.95, 1.05, 0.95
    15, 'BUS 15      ',       400, 1,    1,    1, 1,   1.0390928,  -16.217261, 1.05, 0.95, 1.05, 0.95
    16, 'BUS 16      ',       400, 1,    1,    1, 1,   1.0390928,  -16.217261, 1.05, 0.95, 1.05, 0.95
    17, 'BUS 17      ',       220, 2,    1,    1, 1,   1.1007402,  -18.634562, 1.11, 0.95, 1.11, 0.95
    18, 'BUS 18      ',       220, 2,    1,    1, 1,   1.1008786,  -18.636829, 1.11, 0.95, 1.11, 0.95
    19, 'BUS 19      ',       220, 1,    1,    1, 1,   1.0998027,  -8.0293797, 1.11, 0.95, 1.11, 0.95
    20, 'BUS 20      ',       220, 1,    1,    1, 1,   1.0997938,   -8.025711, 1.11, 0.95, 1.11, 0.95
    21, 'BUS 21      ',       220, 1,    1,    1, 1,   1.0907944,  -18.579546, 1.11, 0.95, 1.11, 0.95
    22, 'BUS 22      ',       220, 1,    1,    1, 1,   1.0907944,  -18.579546, 1.11, 0.95, 1.11, 0.95
    23, 'BUS 23      ',       220, 1,    1,    1, 1,   1.0767644,  -16.828683, 1.11, 0.95, 1.11, 0.95
    24, 'BUS 24      ',       220, 1,    1,    1, 1,   1.1002404,  -5.9666469, 1.11, 0.95, 1.11, 0.95
    25, 'BUS 25      ',       400, 1,    1,    1, 1,   1.0208745,  -17.645776, 1.05, 0.95, 1.05, 0.95
    26, 'BUS 26      ',       220, 2,    1,    1, 1,   1.1094364,  -5.6168012, 1.11, 0.95, 1.11, 0.95
    27, 'BUS 27      ',       220, 2,    1,    1, 1,        1.11,  -2.2752568, 1.11, 0.95, 1.11, 0.95
    28, 'BUS 28      ',       400, 3,    1,    1, 1,    1.048419,   -4.412957, 1.05, 0.95, 1.05, 0.95
    29, 'BUS 29      ',       400, 2,    1,    1, 1,   1.0484076,  -4.4038563, 1.05, 0.95, 1.05, 0.95
    30, 'BUS 30      ',       220, 1,    1,    1, 1,   1.0806119,  -18.048309, 1.11, 0.95, 1.11, 0.95
    31, 'BUS 31      ',       400, 1,    1,    1, 1,   1.0490196,  -5.4090272, 1.05, 0.95, 1.05, 0.95
    32, 'BUS 32      ',       220, 1,    1,    1, 1,   1.0750736,  -17.031979, 1.11, 0.95, 1.11, 0.95
    33, 'BUS 33      ',       220, 1,    1,    1, 1,   1.1002441,  -5.9657856, 1.11, 0.95, 1.11, 0.95
    34, 'BUS 34      ',       220, 1,    1,    1, 1,   1.1001336,  -11.700376, 1.11, 0.95, 1.11, 0.95
    35, 'BUS 35      ',       220, 1,    1,    2, 1,   1.0930028,  -14.672176, 1.11, 0.95, 1.11, 0.95
    36, 'BUS 36      ',       220, 1,    1,    2, 1,   1.0813334,  -15.095174, 1.11, 0.95, 1.11, 0.95
    37, 'BUS 37      ',       220, 1,    1,    2, 1,    1.090534,  -14.116108, 1.11, 0.95, 1.11, 0.95
    38, 'BUS 38      ',       220, 1,    1,    2, 1,   1.0905091,   -14.11899, 1.11, 0.95, 1.11, 0.95
    39, 'BUS 39      ',       220, 1,    1,    2, 1,   1.0853026,  -15.717887, 1.11, 0.95, 1.11, 0.95
    40, 'BUS 40      ',       220, 1,    1,    2, 1,        1.11,  -13.425662, 1.11, 0.95, 1.11, 0.95
    41, 'BUS 41      ',       220, 1,    1,    2, 1,   1.1099097,   -13.42867, 1.11, 0.95, 1.11, 0.95
    42, 'BUS 42      ',       400, 1,    1,    2, 1,    1.026429,  -13.487985, 1.05, 0.95, 1.05, 0.95
    43, 'BUS 43      ',       220, 2,    1,    2, 1,   1.0984004,  -13.307731, 1.11, 0.95, 1.11, 0.95
    44, 'BUS 44      ',       220, 2,    1,    2, 1,   1.0983481,  -13.292422, 1.11, 0.95, 1.11, 0.95
    45, 'BUS 45      ',       400, 2,    1,    2, 1,   1.0325913,  -13.232481, 1.05, 0.95, 1.05, 0.95
    46, 'BUS 46      ',       400, 1,    1,    2, 1,    1.032567,  -13.234248, 1.05, 0.95, 1.05, 0.95
    47, 'BUS 47      ',       220, 1,    1,    2, 1,   1.1087361,  -13.856041, 1.11, 0.95, 1.11, 0.95
    48, 'BUS 48      ',       400, 1,    1,    2, 1,   1.0284578,   -17.17828, 1.05, 0.95, 1.05, 0.95
    49, 'BUS 49      ',       400, 1,    1,    2, 1,   1.0284335,  -17.183891, 1.05, 0.95, 1.05, 0.95
    50, 'BUS 50      ',       400, 1,    1,    2, 1,   1.0284061,  -13.715843, 1.05, 0.95, 1.05, 0.95
    51, 'BUS 51      ',       220, 1,    1,    2, 1,    1.085418,  -14.827225, 1.11, 0.95, 1.11, 0.95
    52, 'BUS 52      ',       220, 1,    1,    2, 1,   1.0854171,  -14.824059, 1.11, 0.95, 1.11, 0.95
    53, 'BUS 53      ',       400, 1,    1,    2, 1,   1.0367923,  -13.975449, 1.05, 0.95, 1.05, 0.95
    54, 'BUS 54      ',       400, 1,    1,    2, 1,   1.0368177,  -13.975713, 1.05, 0.95, 1.05, 0.95
    55, 'BUS 55      ',       220, 2,    1,    2, 1,   1.0933675,  -13.241702, 1.11, 0.95, 1.11, 0.95
    56, 'BUS 56      ',       220, 2,    1,    2, 1,   1.0933406,   -13.24139, 1.11, 0.95, 1.11, 0.95
    57, 'BUS 57      ',       400, 2,    1,    2, 1,   1.0399269,  -13.602589, 1.05, 0.95, 1.05, 0.95
    58, 'BUS 58      ',       400, 2,    1,    2, 1,   1.0399116,  -13.607331, 1.05, 0.95, 1.05, 0.95
    59, 'BUS 59      ',       220, 2,    1,    2, 1,   1.0905288,  -14.340794, 1.11, 0.95, 1.11, 0.95
    60, 'BUS 60      ',       220, 1,    1,    2, 1,   1.0905917,    -14.3368, 1.11, 0.95, 1.11, 0.95
    61, 'BUS 61      ',       220, 1,    1,    2, 1,   1.1039125,  -13.978585, 1.11, 0.95, 1.11, 0.95
    62, 'BUS 62      ',       220, 1,    1,    2, 1,   1.0972139,  -14.122428, 1.11, 0.95, 1.11, 0.95
    63, 'BUS 63      ',       220, 1,    1,    2, 1,   1.0971852,  -14.124141, 1.11, 0.95, 1.11, 0.95
    64, 'BUS 64      ',       400, 1,    1,    2, 1,   1.0393295,  -14.834542, 1.05, 0.95, 1.05, 0.95
    65, 'BUS 65      ',       400, 1,    1,    2, 1,   1.0392873,  -14.845309, 1.05, 0.95, 1.05, 0.95
    66, 'BUS 66      ',       220, 1,    1,    2, 1,   1.0885809,  -14.851473, 1.11, 0.95, 1.11, 0.95
    67, 'BUS 67      ',       220, 1,    1,    2, 1,    1.089995,  -14.701292, 1.11, 0.95, 1.11, 0.95
    68, 'BUS 68      ',       220, 1,    1,    2, 1,   1.0846849,  -14.135762, 1.11, 0.95, 1.11, 0.95
    69, 'BUS 69      ',       220, 1,    1,    3, 1,   1.0984623,  -9.2101367, 1.11, 0.95, 1.11, 0.95
    70, 'BUS 70      ',       220, 1,    1,    3, 1,    1.097636,  -14.395557, 1.11, 0.95, 1.11, 0.95
    71, 'BUS 71      ',       220, 1,    1,    3, 1,   1.0975064,  -14.403378, 1.11, 0.95, 1.11, 0.95
    72, 'BUS 72      ',       220, 1,    1,    3, 1,   1.0946558,  -13.203738, 1.11, 0.95, 1.11, 0.95
    73, 'BUS 73      ',       220, 1,    1,    3, 1,   1.0946671,  -13.188287, 1.11, 0.95, 1.11, 0.95
    74, 'BUS 74      ',       220, 1,    1,    3, 1,   1.1051601,  -10.740817, 1.11, 0.95, 1.11, 0.95
    75, 'BUS 75      ',       220, 1,    1,    3, 1,    1.105133,  -10.745835, 1.11, 0.95, 1.11, 0.95
    76, 'BUS 76      ',       220, 1,    1,    3, 1,   1.0977557,  -17.582249, 1.11, 0.95, 1.11, 0.95
    77, 'BUS 77      ',       220, 1,    1,    3, 1,   1.0977202,  -17.594098, 1.11, 0.95, 1.11, 0.95
    78, 'BUS 78      ',       220, 2,    1,    3, 1,   1.0964689,  -12.136129, 1.11, 0.95, 1.11, 0.95
    79, 'BUS 79      ',       220, 2,    1,    3, 1,   1.0978822,  -12.713425, 1.11, 0.95, 1.11, 0.95
    80, 'BUS 80      ',       220, 1,    1,    3, 1,   1.0931866,  -12.507737, 1.11, 0.95, 1.11, 0.95
    81, 'BUS 81      ',       220, 1,    1,    3, 1,    1.093188,  -12.511077, 1.11, 0.95, 1.11, 0.95
    82, 'BUS 82      ',       400, 2,    1,    3, 1,   1.0444058,  -6.4720845, 1.05, 0.95, 1.05, 0.95
    83, 'BUS 83      ',       220, 1,    1,    3, 1,   1.1049043,  -10.293455, 1.11, 0.95, 1.11, 0.95
    84, 'BUS 84      ',       220, 1,    1,    3, 1,   1.1026824,   -11.36773, 1.11, 0.95, 1.11, 0.95
    85, 'BUS 85      ',       220, 1,    1,    3, 1,   1.1026432,  -11.377001, 1.11, 0.95, 1.11, 0.95
    86, 'BUS 86      ',       220, 1,    1,    3, 1,   1.0984388,  -9.2863579, 1.11, 0.95, 1.11, 0.95
    87, 'BUS 87      ',       220, 1,    1,    3, 1,   1.0984259,  -9.2914791, 1.11, 0.95, 1.11, 0.95
    88, 'BUS 88      ',       220, 1,    1,    3, 1,   1.0937893,  -11.307709, 1.11, 0.95, 1.11, 0.95
    89, 'BUS 89      ',       220, 1,    1,    3, 1,   1.0937779,   -11.31451, 1.11, 0.95, 1.11, 0.95
    90, 'BUS 90      ',       220, 1,    1,    3, 1,   1.1006589,  -8.8485145, 1.11, 0.95, 1.11, 0.95
    91, 'BUS 91      ',       220, 1,    1,    3, 1,   1.1006662,  -8.8442565, 1.11, 0.95, 1.11, 0.95
    92, 'BUS 92      ',       400, 1,    1,    3, 1,   1.0494747,  -6.6627576, 1.05, 0.95, 1.05, 0.95
    93, 'BUS 93      ',       400, 1,    1,    3, 1,   1.0494739,  -6.6630247, 1.05, 0.95, 1.05, 0.95
    94, 'BUS 94      ',       220, 1,    1,    3, 1,   1.1018218,  -10.698364, 1.11, 0.95, 1.11, 0.95
    95, 'BUS 95      ',       220, 1,    1,    3, 1,   1.1018628,  -10.698531, 1.11, 0.95, 1.11, 0.95
    96, 'BUS 96      ',       220, 1,    1,    3, 1,   1.1057907,  -10.479777, 1.11, 0.95, 1.11, 0.95
    97, 'BUS 97      ',       220, 1,    1,    3, 1,   1.1057932,  -10.478906, 1.11, 0.95, 1.11, 0.95
    98, 'BUS 98      ',       220, 1,    1,    3, 1,   1.0963136,  -12.427766, 1.11, 0.95, 1.11, 0.95
    99, 'BUS 99      ',       220, 1,    1,    3, 1,   1.0963094,  -12.423739, 1.11, 0.95, 1.11, 0.95
   100, 'BUS 100     ',       220, 1,    1,    3, 1,   1.0976761,  -14.377845, 1.11, 0.95, 1.11, 0.95
   101, 'BUS 101     ',       220, 1,    1,    3, 1,   1.0976653,  -14.379626, 1.11, 0.95, 1.11, 0.95
   102, 'BUS 102     ',       220, 1,    1,    3, 1,   1.0968926,  -16.800572, 1.11, 0.95, 1.11, 0.95
   103, 'BUS 103     ',       220, 1,    1,    3, 1,    1.096839,  -16.788467, 1.11, 0.95, 1.11, 0.95
   104, 'BUS 104     ',       220, 2,    1,    3, 1,   1.1058911,  -10.737461, 1.11, 0.95, 1.11, 0.95
   105, 'BUS 105     ',       220, 2,    1,    3, 1,   1.1058905,  -10.750145, 1.11, 0.95, 1.11, 0.95
   106, 'BUS 106     ',       220, 2,    1,    3, 1,   1.0998576,  -10.553363, 1.11, 0.95, 1.11, 0.95
   107, 'BUS 107     ',       220, 2,    1,    3, 1,   1.0997476,  -10.555772, 1.11, 0.95, 1.11, 0.95
   108, 'BUS 108     ',       220, 1,    1,    3, 1,   1.0956641,  -11.948298, 1.11, 0.95, 1.11, 0.95
   109, 'BUS 109     ',       220, 1,    1,    3, 1,    1.095698,  -11.961463, 1.11, 0.95, 1.11, 0.95
   110, 'BUS 110     ',       220, 1,    1,    3, 1,    1.093902,  -13.568177, 1.11, 0.95, 1.11, 0.95
   111, 'BUS 111     ',       220, 1,    1,    3, 1,   1.0939286,   -11.62069, 1.11, 0.95, 1.11, 0.95
   112, 'BUS 112     ',       220, 1,    1,    3, 1,   1.0939386,  -11.625092, 1.11, 0.95, 1.11, 0.95
   113, 'BUS 113     ',       220, 1,    1,    3, 1,   1.0928751,  -12.746764, 1.11, 0.95, 1.11, 0.95
   114, 'BUS 114     ',       220, 1,    1,    3, 1,   1.0929005,  -12.742224, 1.11, 0.95, 1.11, 0.95
   115, 'BUS 115     ',       400, 1,    1,    3, 1,    1.040122,  -9.1865909, 1.05, 0.95, 1.05, 0.95
   116, 'BUS 116     ',       220, 2,    1,    3, 1,   1.0957717,  -12.485668, 1.11, 0.95, 1.11, 0.95
   117, 'BUS 117     ',       220, 2,    1,    3, 1,   1.0957311,  -12.476078, 1.11, 0.95, 1.11, 0.95
   118, 'BUS 118     ',       220, 2,    1,    3, 1,   1.0999227,  -13.165235, 1.11, 0.95, 1.11, 0.95
   119, 'BUS 119     ',       220, 1,    1,    3, 1,   1.0999096,   -13.17059, 1.11, 0.95, 1.11, 0.95
   120, 'BUS 120     ',       400, 1,    1,    3, 1,    1.042963,   -13.58135, 1.05, 0.95, 1.05, 0.95
   121, 'BUS 121     ',       400, 1,    1,    3, 1,   1.0429996,  -13.574265, 1.05, 0.95, 1.05, 0.95
   122, 'BUS 122     ',       400, 1,    1,    3, 1,   1.0434218,   -9.342175, 1.05, 0.95, 1.05, 0.95
   123, 'BUS 123     ',       400, 1,    1,    3, 1,   1.0434566,   -9.340653, 1.05, 0.95, 1.05, 0.95
   124, 'BUS 124     ',       220, 1,    1,    3, 1,   1.0942312,  -13.598007, 1.11, 0.95, 1.11, 0.95
   125, 'BUS 125     ',       220, 2,    1,    3, 1,        1.11,  -9.7385765, 1.11, 0.95, 1.11, 0.95
   126, 'BUS 126     ',       220, 2,    1,    3, 1,   1.1099486,  -9.7467082, 1.11, 0.95, 1.11, 0.95
   127, 'BUS 127     ',       400, 2,    1,    3, 1,   1.0401443,  -8.1111678, 1.05, 0.95, 1.05, 0.95
   128, 'BUS 128     ',       400, 1,    1,    3, 1,   1.0401433,  -8.1210678, 1.05, 0.95, 1.05, 0.95
   129, 'BUS 129     ',       220, 1,    1,    3, 1,   1.0980766,  -9.3931842, 1.11, 0.95, 1.11, 0.95
   130, 'BUS 130     ',       220, 1,    1,    3, 1,   1.0980814,  -9.3920832, 1.11, 0.95, 1.11, 0.95
   131, 'BUS 131     ',       220, 1,    1,    3, 1,   1.0993526,  -9.2111481, 1.11, 0.95, 1.11, 0.95
   132, 'BUS 132     ',       220, 2,    1,    3, 1,   1.0990964,  -18.413405, 1.11, 0.95, 1.11, 0.95
   133, 'BUS 133     ',       220, 2,    1,    3, 1,    1.097002,  -18.398163, 1.11, 0.95, 1.11, 0.95
   134, 'BUS 134     ',       220, 2,    1,    4, 1,   1.1065123,  -13.462082, 1.11, 0.95, 1.11, 0.95
   135, 'BUS 135     ',       220, 2,    1,    4, 1,   1.1064205,  -13.470946, 1.11, 0.95, 1.11, 0.95
   136, 'BUS 136     ',       220, 1,    1,    4, 1,   1.0815293,   -16.24031, 1.11, 0.95, 1.11, 0.95
   137, 'BUS 137     ',       220, 1,    1,    4, 1,   1.0845102,  -15.737843, 1.11, 0.95, 1.11, 0.95
   138, 'BUS 138     ',       400, 1,    1,    4, 1,   1.0450222,  -13.350134, 1.05, 0.95, 1.05, 0.95
   139, 'BUS 139     ',       400, 1,    1,    4, 1,   1.0450451,  -13.346304, 1.05, 0.95, 1.05, 0.95
   140, 'BUS 140     ',       220, 1,    1,    4, 1,    1.104459,  -22.571041, 1.11, 0.95, 1.11, 0.95
   141, 'BUS 141     ',       220, 1,    1,    4, 1,   1.0845379,  -24.970176, 1.11, 0.95, 1.11, 0.95
   142, 'BUS 142     ',       220, 1,    1,    4, 1,   1.0845379,  -24.970176, 1.11, 0.95, 1.11, 0.95
   143, 'BUS 143     ',       220, 1,    1,    4, 1,   1.0868162,   -23.55336, 1.11, 0.95, 1.11, 0.95
   144, 'BUS 144     ',       220, 1,    1,    4, 1,   1.0904594,   -14.90911, 1.11, 0.95, 1.11, 0.95
   145, 'BUS 145     ',       220, 1,    1,    4, 1,   1.0904594,   -14.90911, 1.11, 0.95, 1.11, 0.95
   146, 'BUS 146     ',       220, 2,    1,    4, 1,   1.1010599,  -16.894759, 1.11, 0.95, 1.11, 0.95
   147, 'BUS 147     ',       220, 2,    1,    4, 1,   1.1010627,   -16.90408, 1.11, 0.95, 1.11, 0.95
   148, 'BUS 148     ',       220, 2,    1,    4, 1,   1.0847972,  -24.077917, 1.11, 0.95, 1.11, 0.95
   149, 'BUS 149     ',       220, 1,    1,    4, 1,   1.0847555,  -24.092279, 1.11, 0.95, 1.11, 0.95
   150, 'BUS 150     ',       400, 2,    1,    4, 1,   1.0209404,  -25.772587, 1.05, 0.95, 1.05, 0.95
   151, 'BUS 151     ',       400, 2,    1,    4, 1,   1.0209246,   -25.77869, 1.05, 0.95, 1.05, 0.95
   152, 'BUS 152     ',       220, 1,    1,    4, 1,   1.0894799,  -22.639017, 1.11, 0.95, 1.11, 0.95
   153, 'BUS 153     ',       220, 1,    1,    4, 1,   1.0822243,  -21.657901, 1.11, 0.95, 1.11, 0.95
   154, 'BUS 154     ',       220, 1,    1,    4, 1,   1.0822555,  -21.651456, 1.11, 0.95, 1.11, 0.95
   155, 'BUS 155     ',       220, 2,    1,    4, 1,   1.0890716,  -14.012337, 1.11, 0.95, 1.11, 0.95
   156, 'BUS 156     ',       220, 2,    1,    4, 1,   1.0889495,  -14.067839, 1.11, 0.95, 1.11, 0.95
   157, 'BUS 157     ',       220, 1,    1,    4, 1,   1.0890716,  -14.012337, 1.11, 0.95, 1.11, 0.95
   158, 'BUS 158     ',       400, 1,    1,    4, 1,   1.0340575,  -13.036901, 1.05, 0.95, 1.05, 0.95
   159, 'BUS 159     ',       400, 2,    1,    4, 1,   1.0340329,  -13.034686, 1.05, 0.95, 1.05, 0.95
   160, 'BUS 160     ',       220, 1,    1,    4, 1,   1.0842564,  -25.032974, 1.11, 0.95, 1.11, 0.95
   161, 'BUS 161     ',       220, 1,    1,    4, 1,   1.0842564,  -25.032974, 1.11, 0.95, 1.11, 0.95
   162, 'BUS 162     ',       400, 1,    1,    4, 1,        1.05,  -12.564217, 1.05, 0.95, 1.05, 0.95
   163, 'BUS 163     ',       400, 1,    1,    4, 1,   1.0483545,  -11.638085, 1.05, 0.95, 1.05, 0.95
   164, 'BUS 164     ',       400, 1,    1,    4, 1,   1.0483556,  -11.644285, 1.05, 0.95, 1.05, 0.95
   165, 'BUS 165     ',       220, 2,    1,    4, 1,   1.1008249,  -17.138713, 1.11, 0.95, 1.11, 0.95
   166, 'BUS 166     ',       220, 2,    1,    4, 1,   1.1007016,  -17.154685, 1.11, 0.95, 1.11, 0.95
   167, 'BUS 167     ',       220, 1,    1,    4, 1,   1.1007966,  -17.139982, 1.11, 0.95, 1.11, 0.95
   168, 'BUS 168     ',       220, 1,    1,    4, 1,   1.1079282,  -28.127364, 1.11, 0.95, 1.11, 0.95
   169, 'BUS 169     ',       220, 1,    1,    4, 1,    1.087324,  -25.067011, 1.11, 0.95, 1.11, 0.95
   170, 'BUS 170     ',       220, 1,    1,    4, 1,        1.11,  -23.559049, 1.11, 0.95, 1.11, 0.95
   171, 'BUS 171     ',       220, 1,    1,    4, 1,   1.1098972,  -23.558201, 1.11, 0.95, 1.11, 0.95
   172, 'BUS 172     ',       400, 1,    1,    4, 1,  0.96398571,  -24.638265, 1.05, 0.95, 1.05, 0.95
   173, 'BUS 173     ',       400, 1,    1,    4, 1,  0.96398571,  -24.638265, 1.05, 0.95, 1.05, 0.95
   174, 'BUS 174     ',       220, 1,    1,    4, 1,   1.0696839,  -20.949808, 1.11, 0.95, 1.11, 0.95
   175, 'BUS 175     ',       220, 1,    1,    4, 1,   1.0696958,  -20.947885, 1.11, 0.95, 1.11, 0.95
   176, 'BUS 176     ',       220, 1,    1,    4, 1,   1.1082501,  -23.792603, 1.11, 0.95, 1.11, 0.95
   177, 'BUS 177     ',       220, 1,    1,    4, 1,   1.0859664,  -15.678153, 1.11, 0.95, 1.11, 0.95
   178, 'BUS 178     ',       220, 1,    1,    4, 1,   1.0859993,  -15.673145, 1.11, 0.95, 1.11, 0.95
   179, 'BUS 179     ',       220, 1,    1,    4, 1,   1.0917114,  -14.683654, 1.11, 0.95, 1.11, 0.95
   180, 'BUS 180     ',       220, 1,    1,    4, 1,   1.0917114,  -14.683654, 1.11, 0.95, 1.11, 0.95
   181, 'BUS 181     ',       220, 1,    1,    4, 1,   1.0678356,   -21.76123, 1.11, 0.95, 1.11, 0.95
   182, 'BUS 182     ',       220, 1,    1,    5, 1,    1.063868,   -24.73491, 1.11, 0.95, 1.11, 0.95
   183, 'BUS 183     ',       220, 1,    1,    5, 1,        1.11,  -31.694348, 1.11, 0.95, 1.11, 0.95
   184, 'BUS 184     ',       400, 1,    1,    5, 1,   1.0275404,  -31.317799, 1.05, 0.95, 1.05, 0.95
   185, 'BUS 185     ',       400, 1,    1,    5, 1,   1.0275436,  -31.310859, 1.05, 0.95, 1.05, 0.95
   186, 'BUS 186     ',       400, 1,    1,    5, 1,   1.0179187,  -33.636246, 1.05, 0.95, 1.05, 0.95
   187, 'BUS 187     ',       400, 1,    1,    5, 1,   1.0179404,  -33.643752, 1.05, 0.95, 1.05, 0.95
   188, 'BUS 188     ',       220, 1,    1,    5, 1,   1.0778956,  -31.850779, 1.11, 0.95, 1.11, 0.95
   189, 'BUS 189     ',       220, 1,    1,    5, 1,   1.0779468,  -31.854197, 1.11, 0.95, 1.11, 0.95
   190, 'BUS 190     ',       220, 1,    1,    5, 1,    1.060876,  -26.835974, 1.11, 0.95, 1.11, 0.95
   191, 'BUS 191     ',       220, 1,    1,    5, 1,   1.0609263,  -26.833741, 1.11, 0.95, 1.11, 0.95
   192, 'BUS 192     ',       400, 1,    1,    5, 1,   1.0061829,   -26.37235, 1.05, 0.95, 1.05, 0.95
   193, 'BUS 193     ',       220, 1,    1,    5, 1,   1.0693967,  -24.332532, 1.11, 0.95, 1.11, 0.95
   194, 'BUS 194     ',       220, 1,    1,    5, 1,   1.0693881,  -24.329742, 1.11, 0.95, 1.11, 0.95
   195, 'BUS 195     ',       400, 1,    1,    5, 1,   1.0184099,  -32.763078, 1.05, 0.95, 1.05, 0.95
   196, 'BUS 196     ',       400, 1,    1,    5, 1,   1.0183911,  -32.760735, 1.05, 0.95, 1.05, 0.95
   197, 'BUS 197     ',       220, 1,    1,    5, 1,   1.0693764,  -26.606702, 1.11, 0.95, 1.11, 0.95
   198, 'BUS 198     ',       220, 1,    1,    5, 1,   1.0693398,  -26.599683, 1.11, 0.95, 1.11, 0.95
   199, 'BUS 199     ',       400, 1,    1,    5, 1,   1.0266211,  -32.853512, 1.05, 0.95, 1.05, 0.95
   200, 'BUS 200     ',       400, 1,    1,    5, 1,   1.0266502,  -32.840632, 1.05, 0.95, 1.05, 0.95
...
0 / END OF BUS DATA, BEGIN LOAD DATA
    17,  1, 1,    1,    1,     2.302,        31, 0, 0, 0, 0, 1, 1, 0
    18,  1, 1,    1,    1,       9.7,        40, 0, 0, 0, 0, 1, 1, 0
    26,  1, 1,    1,    1,    28.565,    42.054, 0, 0, 0, 0, 1, 1, 0
    27,  1, 1,    1,    1,    85.005,    122.06, 0, 0, 0, 0, 1, 1, 0
    28,  1, 1,    1,    1,    44.783,        80, 0, 0, 0, 0, 1, 1, 0
    29,  1, 1,    1,    1,    60.097,        90, 0, 0, 0, 0, 1, 1, 0
    43,  1, 1,    1,    2,        12,         0, 0, 0, 0, 0, 1, 1, 0
    44,  1, 1,    1,    2,        24,         0, 0, 0, 0, 0, 1, 1, 0
    45,  1, 1,    1,    2,        20,         0, 0, 0, 0, 0, 1, 1, 0
    55,  1, 1,    1,    2,        12,         0, 0, 0, 0, 0, 1, 1, 0
    56,  1, 1,    1,    2,        12,         0, 0, 0, 0, 0, 1, 1, 0
    57,  1, 1,    1,    2,        12,         0, 0, 0, 0, 0, 1, 1, 0
    58,  1, 1,    1,    2,        12,         0, 0, 0, 0, 0, 1, 1, 0
    59,  1, 1,    1,    2,   170.733,        62, 0, 0, 0, 0, 1, 1, 0
    70,  1, 1,    1,    3,       6.8,         0, 0, 0, 0, 0, 1, 1, 0
    71,  1, 1,    1,    3,    11.331,      2.43, 0, 0, 0, 0, 1, 1, 0
    78,  1, 1,    1,    3,    26.999,    69.999, 0, 0, 0, 0, 1, 1, 0
    79,  1, 1,    1,    3,     8.999,    20.999, 0, 0, 0, 0, 1, 1, 0
    80,  1, 1,    1,    3,    10.085,     1.376, 0, 0, 0, 0, 1, 1, 0
    82,  1, 1,    1,    3,    34.999,   107.999, 0, 0, 0, 0, 1, 1, 0
    86,  1, 1,    1,    3,    44.148,    10.561, 0, 0, 0, 0, 1, 1, 0
    98,  1, 1,    1,    3,    17.111,     6.317, 0, 0, 0, 0, 1, 1, 0
   104,  1, 1,    1,    3,    13.999,    39.999, 0, 0, 0, 0, 1, 1, 0
   106,  1, 1,    1,    3,     6.999,    17.999, 0, 0, 0, 0, 1, 1, 0
   107,  1, 1,    1,    3,     7.999,    14.999, 0, 0, 0, 0, 1, 1, 0
   108,  1, 1,    1,    3,    52.726,    17.138, 0, 0, 0, 0, 1, 1, 0
   109,  1, 1,    1,    3,    56.444,    10.902, 0, 0, 0, 0, 1, 1, 0
   117,  1, 1,    1,    3,     7.999,    14.999, 0, 0, 0, 0, 1, 1, 0
   118,  1, 1,    1,    3,     5.499,     9.999, 0, 0, 0, 0, 1, 1, 0
   125,  1, 1,    1,    3,    19.213,    21.474, 0, 0, 0, 0, 1, 1, 0
   126,  1, 1,    1,    3,    30.672,    33.602, 0, 0, 0, 0, 1, 1, 0
   127,  1, 1,    1,    3,    27.999,    65.999, 0, 0, 0, 0, 1, 1, 0
   132,  1, 1,    1,    3,   271.999,   -62.001, 0, 0, 0, 0, 1, 1, 0
   133,  1, 1,    1,    3,     266.5,     -24.8, 0, 0, 0, 0, 1, 1, 0
   134,  1, 1,    1,    4,    14.931,     12.88, 0, 0, 0, 0, 1, 1, 0
   135,  1, 1,    1,    4,     8.013,     6.525, 0, 0, 0, 0, 1, 1, 0
   146,  1, 1,    1,    4,    55.255,     6.955, 0, 0, 0, 0, 1, 1, 0
   147,  1, 1,    1,    4,    10.077,       8.4, 0, 0, 0, 0, 1, 1, 0
   148,  1, 1,    1,    4,      11.5,      6.86, 0, 0, 0, 0, 1, 1, 0
   149,  1, 1,    1,    4,     4.423,     1.347, 0, 0, 0, 0, 1, 1, 0
   150,  1, 1,    1,    4,    12.633,     6.828, 0, 0, 0, 0, 1, 1, 0
   151,  1, 1,    1,    4,    12.397,    10.045, 0, 0, 0, 0, 1, 1, 0
   155,  1, 1,    1,    4,    33.593,    44.976, 0, 0, 0, 0, 1, 1, 0
   156,  1, 1,    1,    4,    33.832,     45.07, 0, 0, 0, 0, 1, 1, 0
   159,  1, 1,    1,    4,     8.687,     17.49, 0, 0, 0, 0, 1, 1, 0
   165,  1, 1,    1,    4,     5.495,     9.587, 0, 0, 0, 0, 1, 1, 0
   166,  1, 1,    1,    4,    10.099,     4.886, 0, 0, 0, 0, 1, 1, 0
   167,  1, 1,    1,    4,     14.36,    13.623, 0, 0, 0, 0, 1, 1, 0
   205,  1, 1,    1,    5,   619.912,         0, 0, 0, 0, 0, 1, 1, 0
   206,  1, 1,    1,    5,   205.255,         0, 0, 0, 0, 0, 1, 1, 0
   209,  1, 1,    1,    1,     5.821,       1.5, 0, 0, 0, 0, 1, 1, 0
   210,  1, 1,    1,    1,     4.366,       0.5, 0, 0, 0, 0, 1, 1, 0
   211,  1, 1,    1,    1,     7.761,         2, 0, 0, 0, 0, 1, 1, 0
   212,  1, 1,    1,    1,     6.306,       5.6, 0, 0, 0, 0, 1, 1, 0
   213,  1, 1,    1,    1,     2.523,       0.6, 0, 0, 0, 0, 1, 1, 0
   214,  1, 1,    1,    1,     4.851,       1.3, 0, 0, 0, 0, 1, 1, 0
   215,  1, 1,    1,    1,    19.194,         8, 0, 0, 0, 0, 1, 1, 0
   216,  1, 1,    1,    1,    14.553,       1.5, 0, 0, 0, 0, 1, 1, 0
   217,  1, 1,    1,    1,     4.851,         1, 0, 0, 0, 0, 1, 1, 0
   218,  1, 1,    1,    1,     4.851,         1, 0, 0, 0, 0, 1, 1, 0
   219,  1, 1,    1,    1,     8.247,       1.6, 0, 0, 0, 0, 1, 1, 0
   220,  1, 1,    1,    1,     5.822,       1.5, 0, 0, 0, 0, 1, 1, 0
   222,  1, 1,    1,    1,     6.306,       1.5, 0, 0, 0, 0, 1, 1, 0
   223,  1, 1,    1,    1,    15.523,       2.6, 0, 0, 0, 0, 1, 1, 0
   224,  1, 1,    1,    1,     1.649,       0.4, 0, 0, 0, 0, 1, 1, 0
   225,  1, 1,    1,    1,     2.425,       0.2, 0, 0, 0, 0, 1, 1, 0
   226,  1, 1,    1,    1,     2.911,       0.5, 0, 0, 0, 0, 1, 1, 0
   227,  1, 1,    1,    1,    10.672,     0.499, 0, 0, 0, 0, 1, 1, 0
   228,  1, 1,    1,    1,     6.791,         2, 0, 0, 0, 0, 1, 1, 0
   229,  1, 1,    1,    1,     2.231,      1.05, 0, 0, 0, 0, 1, 1, 0
   230,  1, 1,    1,    1,     2.231,      1.05, 0, 0, 0, 0, 1, 1, 0
   231,  1, 1,    1,    1,    11.642,         6, 0, 0, 0, 0, 1, 1, 0
   232,  1, 1,    1,    1,     4.366,         1, 0, 0, 0, 0, 1, 1, 0
   233,  1, 1,    1,    1,     8.732,         1, 0, 0, 0, 0, 1, 1, 0
   234,  1, 1,    1,    1,    16.493,        14, 0, 0, 0, 0, 1, 1, 0
   235,  1, 1,    1,    1,     3.978,       0.5, 0, 0, 0, 0, 1, 1, 0
   236,  1, 1,    1,    1,     8.926,      3.64, 0, 0, 0, 0, 1, 1, 0
   237,  1, 1,    1,    1,     4.463,       0.3, 0, 0, 0, 0, 1, 1, 0
   238,  1, 1,    1,    1,     5.821,         1, 0, 0, 0, 0, 1, 1, 0
   239,  1, 1,    1,    1,     4.305,     1.175, 0, 0, 0, 0, 1, 1, 0
   240,  1, 1,    1,    1,     7.471,         1, 0, 0, 0, 0, 1, 1, 0
   241,  1, 1,    1,    1,     4.463,      1.67, 0, 0, 0, 0, 1, 1, 0
   242,  1, 1,    1,    1,     6.791,       0.7, 0, 0, 0, 0, 1, 1, 0
   244,  1, 1,    1,    1,     2.231,       1.4, 0, 0, 0, 0, 1, 1, 0
   246,  1, 1,    1,    1,     1.982,         5, 0, 0, 0, 0, 1, 1, 0
   247,  1, 1,    1,    1,     6.792,       1.5, 0, 0, 0, 0, 1, 1, 0
   248,  1, 1,    1,    1,      1.94,       0.5, 0, 0, 0, 0, 1, 1, 0
   249,  1, 1,    1,    1,      1.94,       0.5, 0, 0, 0, 0, 1, 1, 0
   250,  1, 1,    1,    1,     2.911,       0.5, 0, 0, 0, 0, 1, 1, 0
   251,  1, 1,    1,    1,     2.814,       0.5, 0, 0, 0, 0, 1, 1, 0
   252,  1, 1,    1,    1,    10.672,         7, 0, 0, 0, 0, 1, 1, 0
   253,  1, 1,    1,    1,    21.345,         5, 0, 0, 0, 0, 1, 1, 0
   254,  1, 1,    1,    1,     8.732,         2, 0, 0, 0, 0, 1, 1, 0
   255,  1, 1,    1,    1,    18.433,         1, 0, 0, 0, 0, 1, 1, 0
   256,  1, 1,    1,    1,     3.396,       0.5, 0, 0, 0, 0, 1, 1, 0
   257,  1, 1,    1,    1,     2.425,      0.35, 0, 0, 0, 0, 1, 1, 0
   258,  1, 1,    1,    1,     2.425,      0.35, 0, 0, 0, 0, 1, 1, 0
   259,  1, 1,    1,    1,     6.791,      2.54, 0, 0, 0, 0, 1, 1, 0
   260,  1, 1,    1,    1,     4.851,         1, 0, 0, 0, 0, 1, 1, 0
   261,  1, 1,    1,    1,     2.134,       0.5, 0, 0, 0, 0, 1, 1, 0
   262,  1, 1,    1,    1,     7.276,       1.6, 0, 0, 0, 0, 1, 1, 0
   263,  1, 1,    1,    1,     0.776,       0.5, 0, 0, 0, 0, 1, 1, 0
   264,  1, 1,    1,    1,    41.719,        37, 0, 0, 0, 0, 1, 1, 0
   265,  1, 1,    1,    1,     43.66,        40, 0, 0, 0, 0, 1, 1, 0
   266,  1, 1,    1,    1,     2.911,         1, 0, 0, 0, 0, 1, 1, 0
   267,  1, 1,    1,    1,     8.247,       0.7, 0, 0, 0, 0, 1, 1, 0
   268,  1, 1,    1,    1,     5.336,       1.1, 0, 0, 0, 0, 1, 1, 0
   269,  1, 1,    1,    1,     7.761,       1.5, 0, 0, 0, 0, 1, 1, 0
   270,  1, 1,    1,    1,     5.821,       1.5, 0, 0, 0, 0, 1, 1, 0
   271,  1, 1,    1,    1,    10.672,      2.75, 0, 0, 0, 0, 1, 1, 0
   272,  1, 1,    1,    1,     0.098,         0, 0, 0, 0, 0, 1, 1, 0
   273,  1, 1,    1,    1,     0.097,      0.03, 0, 0, 0, 0, 1, 1, 0
   274,  1, 1,    1,    1,     0.097,      0.03, 0, 0, 0, 0, 1, 1, 0
   275,  1, 1,    1,    1,     7.451,      3.94, 0, 0, 0, 0, 1, 1, 0
   276,  1, 1,    1,    1,     4.967,      2.63, 0, 0, 0, 0, 1, 1, 0
   277,  1, 1,    1,    1,     5.239,       1.2, 0, 0, 0, 0, 1, 1, 0
   278,  1, 1,    1,    1,      1.94,         0, 0, 0, 0, 0, 1, 1, 0
   279,  1, 1,    1,    1,     5.336,         0, 0, 0, 0, 0, 1, 1, 0
   280,  1, 1,    1,    1,    10.672,         3, 0, 0, 0, 0, 1, 1, 0
   281,  1, 1,    1,    1,     7.761,         1, 0, 0, 0, 0, 1, 1, 0
   282,  1, 1,    1,    1,    22.314,        21, 0, 0, 0, 0, 1, 1, 0
   283,  1, 1,    1,    1,    15.524,        13, 0, 0, 0, 0, 1, 1, 0
   284,  1, 1,    1,    1,     7.762,      3.17, 0, 0, 0, 0, 1, 1, 0
   285,  1, 1,    1,    1,    10.672,       1.6, 0, 0, 0, 0, 1, 1, 0
   286,  1, 1,    1,    1,     5.821,       0.5, 0, 0, 0, 0, 1, 1, 0
   287,  1, 1,    1,    1,     3.396,         0, 0, 0, 0, 0, 1, 1, 0
   288,  1, 1,    1,    1,     2.425,       0.5, 0, 0, 0, 0, 1, 1, 0
   289,  1, 1,    1,    1,     2.425,       0.6, 0, 0, 0, 0, 1, 1, 0
   290,  1, 1,    1,    1,    16.008,         6, 0, 0, 0, 0, 1, 1, 0
   291,  1, 1,    1,    1,     9.702,         1, 0, 0, 0, 0, 1, 1, 0
   292,  1, 1,    1,    1,     5.239,      1.96, 0, 0, 0, 0, 1, 1, 0
   293,  1, 1,    1,    1,      1.94,       1.3, 0, 0, 0, 0, 1, 1, 0
   294,  1, 1,    1,    1,     4.657,       0.8, 0, 0, 0, 0, 1, 1, 0
   295,  1, 1,    1,    1,     6.209,       0.9, 0, 0, 0, 0, 1, 1, 0
   296,  1, 1,    1,    1,     3.881,         2, 0, 0, 0, 0, 1, 1, 0
   297,  1, 1,    1,    1,     7.276,      2.97, 0, 0, 0, 0, 1, 1, 0
   298,  1, 1,    1,    1,       9.8,      3.67, 0, 0, 0, 0, 1, 1, 0
   299,  1, 1,    1,    1,     9.702,       3.5, 0, 0, 0, 0, 1, 1, 0
   301,  1, 1,    1,    1,     3.881,       0.5, 0, 0, 0, 0, 1, 1, 0
   302,  1, 1,    1,    1,      8.15,      3.33, 0, 0, 0, 0, 1, 1, 0
   303,  1, 1,    1,    1,     9.605,      3.59, 0, 0, 0, 0, 1, 1, 0
   304,  1, 1,    1,    1,    13.291,      4.97, 0, 0, 0, 0, 1, 1, 0
   305,  1, 1,    1,    1,    14.844,      5.55, 0, 0, 0, 0, 1, 1, 0
   306,  1, 1,    1,    1,    78.068,     52.19, 0, 0, 0, 0, 1, 1, 0
   307,  1, 1,    1,    1,    52.074,     20.97, 0, 0, 0, 0, 1, 1, 0
   308,  1, 1,    1,    1,    18.922,      9.47, 0, 0, 0, 0, 1, 1, 0
   310,  1, 1,    1,    1,    36.737,     19.74, 0, 0, 0, 0, 1, 1, 0
   311,  1, 1,    1,    1,    29.633,     16.42, 0, 0, 0, 0, 1, 1, 0
   312,  1, 1,    1,    1,     8.053,       0.8, 0, 0, 0, 0, 1, 1, 0
   313,  1, 1,    1,    1,      1.94,         0, 0, 0, 0, 0, 1, 1, 0
   314,  1, 1,    1,    1,      0.97,     0.501, 0, 0, 0, 0, 1, 1, 0
   315,  1, 1,    1,    1,     5.578,      0.75, 0, 0, 0, 0, 1, 1, 0
   316,  1, 1,    1,    1,     8.489,      1.25, 0, 0, 0, 0, 1, 1, 0
   317,  1, 1,    1,    1,    12.419,         3, 0, 0, 0, 0, 1, 1, 0
   318,  1, 1,    1,    1,     6.694,       2.5, 0, 0, 0, 0, 1, 1, 0
   319,  1, 1,    1,    1,     12.03,       4.5, 0, 0, 0, 0, 1, 1, 0
   320,  1, 1,    1,    1,    10.672,       2.5, 0, 0, 0, 0, 1, 1, 0
   321,  1, 1,    1,    1,    11.642,      4.75, 0, 0, 0, 0, 1, 1, 0
   322,  1, 1,    1,    1,    11.613,      4.74, 0, 0, 0, 0, 1, 1, 0
   323,  1, 1,    1,    1,     4.977,      2.03, 0, 0, 0, 0, 1, 1, 0
   324,  1, 1,    1,    1,     9.702,       2.5, 0, 0, 0, 0, 1, 1, 0
   325,  1, 1,    1,    1,    14.553,         3, 0, 0, 0, 0, 1, 1, 0
   326,  1, 1,    1,    1,     8.926,      3.34, 0, 0, 0, 0, 1, 1, 0
   327,  1, 1,    1,    1,     5.336,         1, 0, 0, 0, 0, 1, 1, 0
   328,  1, 1,    1,    1,     2.911,       0.6, 0, 0, 0, 0, 1, 1, 0
   329,  1, 1,    1,    1,    38.225,      14.3, 0, 0, 0, 0, 1, 1, 0
   330,  1, 1,    1,    1,    11.643,         1, 0, 0, 0, 0, 1, 1, 0
   332,  1, 1,    1,    1,     6.791,         2, 0, 0, 0, 0, 1, 1, 0
   333,  1, 1,    1,    1,     3.881,       0.2, 0, 0, 0, 0, 1, 1, 0
   334,  1, 1,    1,    1,     8.635,      3.23, 0, 0, 0, 0, 1, 1, 0
   335,  1, 1,    1,    1,     7.276,       1.9, 0, 0, 0, 0, 1, 1, 0
   336,  1, 1,    1,    1,    14.553,       4.5, 0, 0, 0, 0, 1, 1, 0
   337,  1, 1,    1,    1,    14.553,       4.5, 0, 0, 0, 0, 1, 1, 0
   338,  1, 1,    1,    1,     3.396,         0, 0, 0, 0, 0, 1, 1, 0
   341,  1, 1,    1,    1,    11.642,       3.8, 0, 0, 0, 0, 1, 1, 0
   342,  1, 1,    1,    1,     9.703,       2.1, 0, 0, 0, 0, 1, 1, 0
   344,  1, 1,    1,    1,     3.396,       0.5, 0, 0, 0, 0, 1, 1, 0
   345,  1, 1,    1,    1,     5.821,       1.5, 0, 0, 0, 0, 1, 1, 0
   346,  1, 1,    1,    1,     4.754,       0.6, 0, 0, 0, 0, 1, 1, 0
   347,  1, 1,    1,    1,    11.642,      4.36, 0, 0, 0, 0, 1, 1, 0
   348,  1, 1,    1,    1,       6.5,      1.68, 0, 0, 0, 0, 1, 1, 0
   350,  1, 1,    1,    1,     3.396,         1, 0, 0, 0, 0, 1, 1, 0
   351,  1, 1,    1,    1,     1.941,       0.6, 0, 0, 0, 0, 1, 1, 0
   355,  1, 1,    1,    1,     7.761,       2.3, 0, 0, 0, 0, 1, 1, 0
   356,  1, 1,    1,    1,     7.762,       1.8, 0, 0, 0, 0, 1, 1, 0
   357,  1, 1,    1,    1,     7.373,       0.6, 0, 0, 0, 0, 1, 1, 0
   360,  1, 1,    1,    1,     6.307,       1.3, 0, 0, 0, 0, 1, 1, 0
   361,  1, 1,    1,    1,     5.821,         1, 0, 0, 0, 0, 1, 1, 0
   362,  1, 1,    1,    1,    38.808,        15, 0, 0, 0, 0, 1, 1, 0
   363,  1, 1,    1,    1,    38.808,        16, 0, 0, 0, 0, 1, 1, 0
   364,  1, 1,    1,    1,    42.689,        12, 0, 0, 0, 0, 1, 1, 0
   365,  1, 1,    1,    1,    77.616,        22, 0, 0, 0, 0, 1, 1, 0
   367,  1, 1,    1,    1,     4.172,       0.5, 0, 0, 0, 0, 1, 1, 0
   368,  1, 1,    1,    1,    13.582,       0.7, 0, 0, 0, 0, 1, 1, 0
   369,  1, 1,    1,    1,     3.396,         1, 0, 0, 0, 0, 1, 1, 0
   371,  1, 1,    1,    1,    16.008,         7, 0, 0, 0, 0, 1, 1, 0
   372,  1, 1,    1,    1,     2.911,       0.5, 0, 0, 0, 0, 1, 1, 0
   373,  1, 1,    1,    1,     5.821,       1.5, 0, 0, 0, 0, 1, 1, 0
   374,  1, 1,    1,    1,     6.306,       1.5, 0, 0, 0, 0, 1, 1, 0
   375,  1, 1,    1,    1,     5.433,       0.5, 0, 0, 0, 0, 1, 1, 0
...
0 / END OF LOAD DATA, BEGIN FIXED SHUNT DATA
     8, 1, 1,       0,     -50
    13, 1, 1,       0,     -50
    25, 1, 1,       0,     -50
  1771, 1, 1,  -1.089,       0
  1858, 1, 1,  -1.089,       0
  2076, 1, 1,  -0.013,   -0.09
0 / END OF FIXED SHUNT DATA, BEGIN GENERATOR DATA
    17,  1,       140,       -10,       120,       -10,  1.09088, 0,   233.2, 0, 1, 0, 0, 1, 1, 100,       200,       140, 1, 1, 0, 1, 0, 1, 0, 1, 0, 1
    18,  1,       140,   91.8892,       120,       -10,  1.09091, 0,   233.2, 0, 1, 0, 0, 1, 1, 100,       200,       140, 1, 1, 0, 1, 0, 1, 0, 1, 0, 1
    26,  1,         0,         0,       220,       -10,  1.09091, 0,   430.5, 0, 1, 0, 0, 1, 0, 100,       370,       290, 1, 1, 0, 1, 0, 1, 0, 1, 0, 1
    26,  2,       360,   104.419,       220,       -10,  1.09091, 0,   421.9, 0, 1, 0, 0, 1, 1, 100,       360,       290, 1, 1, 0, 1, 0, 1, 0, 1, 0, 1
    27,  1,       360,       -10,       220,       -10,  1.09091, 0,   421.9, 0, 1, 0, 0, 1, 1, 100,       360,       290, 1, 1, 0, 1, 0, 1, 0, 1, 0, 1
    27,  2,       370,   80.9866,       220,       -10,  1.09091, 0,   430.5, 0, 1, 0, 0, 1, 1, 100,       370,       290, 1, 1, 0, 1, 0, 1, 0, 1, 0, 1
    27,  3,       370,   81.5609,       220,       -10,  1.09091, 0,   430.5, 0, 1, 0, 0, 1, 1, 100,       370,       290, 1, 1, 0, 1, 0, 1, 0, 1, 0, 1
    28,  1,         0,         0,       220,       -10,   1.0325, 0,   430.5, 0, 1, 0, 0, 1, 0, 100,       370,       290, 1, 1, 0, 1, 0, 1, 0, 1, 0, 1
    28,  2,       370,   -3.4539,       220,       -10,   1.0325, 0,   430.5, 0, 1, 0, 0, 1, 1, 100,       370,       290, 1, 1, 0, 1, 0, 1, 0, 1, 0, 1
    28,  3,       370,   -3.4539,       220,       -10,   1.0325, 0,   430.5, 0, 1, 0, 0, 1, 1, 100,       370,       290, 1, 1, 0, 1, 0, 1, 0, 1, 0, 1
    29,  1,       370,       -10,       220,       -10,   1.0325, 0,   430.5, 0, 1, 0, 0, 1, 1, 100,       370,       290, 1, 1, 0, 1, 0, 1, 0, 1, 0, 1
    29,  2,       370,       -10,       220,       -10,   1.0325, 0,   430.5, 0, 1, 0, 0, 1, 1, 100,       370,       290, 1, 1, 0, 1, 0, 1, 0, 1, 0, 1
    29,  3,       370,       -10,       220,       -10,   1.0325, 0,   430.5, 0, 1, 0, 0, 1, 1, 100,       370,       290, 1, 1, 0, 1, 0, 1, 0, 1, 0, 1
    43,  1,       135,       -20,       120,       -20,  1.09091, 0,   246.2, 0, 1, 0, 0, 1, 1, 100,       215,       135, 1, 1, 0, 1, 0, 1, 0, 1, 0, 1
    43,  2,         0,         0,       120,       -20,  1.09091, 0,   275.3, 0, 1, 0, 0, 1, 0, 100,     247.8,       135, 1, 1, 0, 1, 0, 1, 0, 1, 0, 1
    43,  3,         0,         0,       120,       -20,  1.09091, 0,   275.3, 0, 1, 0, 0, 1, 0, 100,     247.8,       135, 1, 1, 0, 1, 0, 1, 0, 1, 0, 1
    44,  1,       135,       -20,       120,       -20,  1.09096, 0,     255, 0, 1, 0, 0, 1, 1, 100,       225,       135, 1, 1, 0, 1, 0, 1, 0, 1, 0, 1
    44,  2,       135,       -20,       120,       -20,  1.09096, 0,     255, 0, 1, 0, 0, 1, 1, 100,       225,       135, 1, 1, 0, 1, 0, 1, 0, 1, 0, 1
    44,  3,         0,         0,       120,       -20,  1.09096, 0,     255, 0, 1, 0, 0, 1, 0, 100,       225,       135, 1, 1, 0, 1, 0, 1, 0, 1, 0, 1
    45,  1,         0,         0,       350,       -40,   1.0325, 0,   610.3, 0, 1, 0, 0, 1, 0, 100,       500,       350, 1, 1, 0, 1, 0, 1, 0, 1, 0, 1
    45,  2,       350,       -40,       350,       -40,   1.0325, 0,   610.3, 0, 1, 0, 0, 1, 1, 100,       500,       350, 1, 1, 0, 1, 0, 1, 0, 1, 0, 1
    55,  1,       130,       -20,       120,       -20,  1.09121, 0,     255, 0, 1, 0, 0, 1, 1, 100,       225,       130, 1, 1, 0, 1, 0, 1, 0, 1, 0, 1
    56,  1,       130,       -20,       120,       -20,  1.09115, 0,     255, 0, 1, 0, 0, 1, 1, 100,       225,       130, 1, 1, 0, 1, 0, 1, 0, 1, 0, 1
    56,  2,         0,         0,       120,       -20,  1.09115, 0,     255, 0, 1, 0, 0, 1, 0, 100,       225,       130, 1, 1, 0, 1, 0, 1, 0, 1, 0, 1
    57,  1,       130,       -20,       120,       -20,  1.03336, 0,     255, 0, 1, 0, 0, 1, 1, 100,       225,       130, 1, 1, 0, 1, 0, 1, 0, 1, 0, 1
    58,  1,         0,         0,       120,       -20,  1.03337, 0,     255, 0, 1, 0, 0, 1, 0, 100,       225,       130, 1, 1, 0, 1, 0, 1, 0, 1, 0, 1
    58,  2,       130,       -20,       120,       -20,  1.03337, 0,     255, 0, 1, 0, 0, 1, 1, 100,       225,       130, 1, 1, 0, 1, 0, 1, 0, 1, 0, 1
    58,  3,         0,         0,       120,       -20,  1.03337, 0,     255, 0, 1, 0, 0, 1, 0, 100,       225,       130, 1, 1, 0, 1, 0, 1, 0, 1, 0, 1
    59,  1,        63,         0,      28.8,         0,  1.08415, 0,    69.3, 0, 1, 0, 0, 1, 1, 100,        63,        63, 1, 1, 0, 1, 0, 1, 0, 1, 0, 1
    78,  1,       140,         5,       105,         5,  1.09091, 0,   248.3, 0, 1, 0, 0, 1, 1, 100,       225,       140, 1, 1, 0, 1, 0, 1, 0, 1, 0, 1
    78,  2,       140,   50.0711,       105,         5,  1.09091, 0,   248.3, 0, 1, 0, 0, 1, 1, 100,       225,       140, 1, 1, 0, 1, 0, 1, 0, 1, 0, 1
    79,  1,         0,         0,       105,         5,  1.09034, 0,   243.8, 0, 1, 0, 0, 1, 0, 100,       220,       140, 1, 1, 0, 1, 0, 1, 0, 1, 0, 1
    79,  2,         0,         0,       105,         5,  1.09034, 0,   248.3, 0, 1, 0, 0, 1, 0, 100,       225,       140, 1, 1, 0, 1, 0, 1, 0, 1, 0, 1
    79,  3,       140,         5,       105,         5,  1.09034, 0,   248.3, 0, 1, 0, 0, 1, 1, 100,       225,       140, 1, 1, 0, 1, 0, 1, 0, 1, 0, 1
    82,  1,       380,       -37,       192,       -37,  1.02993, 0,   425.8, 0, 1, 0, 0, 1, 1, 100,       380,       220, 1, 1, 0, 1, 0, 1, 0, 1, 0, 1
    82,  2,       370,   -27.698,       174,   -27.698,  1.02993, 0,   408.9, 0, 1, 0, 0, 1, 1, 100,       370,       220, 1, 1, 0, 1, 0, 1, 0, 1, 0, 1
   104,  1,   190.653,   24.9606,       113,       -48,  1.09091, 0,   251.8, 0, 1, 0, 0, 1, 1, 100,       225,       120, 1, 1, 0, 1, 0, 1, 0, 1, 0, 1
   105,  1,         0,         0,       113,       -48,  1.09091, 0,   251.8, 0, 1, 0, 0, 1, 0, 100,       225,       134, 1, 1, 0, 1, 0, 1, 0, 1, 0, 1
   106,  1,        79,   38.0238,        90,        -5,  1.09091, 0,     150, 0, 1, 0, 0, 1, 1, 100,       120,        79, 1, 1, 0, 1, 0, 1, 0, 1, 0, 1
   107,  1,        79,        -5,        90,        -5,  1.09091, 0,     150, 0, 1, 0, 0, 1, 1, 100,       120,        79, 1, 1, 0, 1, 0, 1, 0, 1, 0, 1
   116,  1,         0,         0,        90,       -20,  1.09042, 0,     150, 0, 1, 0, 0, 1, 0, 100,       120,        90, 1, 1, 0, 1, 0, 1, 0, 1, 0, 1
   117,  1,        70,       -20,        90,       -20,  1.09046, 0,     150, 0, 1, 0, 0, 1, 1, 100,       120,        70, 1, 1, 0, 1, 0, 1, 0, 1, 0, 1
   118,  1,        80,        33,        68,        33,    1.089, 0,   129.3, 0, 1, 0, 0, 1, 1, 100,       110,        80, 1, 1, 0, 1, 0, 1, 0, 1, 0, 1
   125,  1,       215,   52.0648,       113,       -11,  1.09091, 0,   242.9, 0, 1, 0, 0, 1, 1, 100,       215,       160, 1, 1, 0, 1, 0, 1, 0, 1, 0, 1
   126,  1,       225,        84,        84,        -5,  1.09082, 0,   240.2, 0, 1, 0, 0, 1, 1, 100,       225,       140, 1, 1, 0, 1, 0, 1, 0, 1, 0, 1
   126,  2,         0,         0,        80,        -5,  1.09082, 0,   229.4, 0, 1, 0, 0, 1, 0, 100,       215,       160, 1, 1, 0, 1, 0, 1, 0, 1, 0, 1
   127,  1,       225,      -7.5,        79,      -7.5,  1.02869, 0,   238.5, 0, 1, 0, 0, 1, 1, 100,       225,       140, 1, 1, 0, 1, 0, 1, 0, 1, 0, 1
   127,  2,       220,       -10,       100,       -10,  1.02869, 0,   241.7, 0, 1, 0, 0, 1, 1, 100,       220,       160, 1, 1, 0, 1, 0, 1, 0, 1, 0, 1
   132,  1,         0,         0,         0,         0,  1.09091, 0,       0, 0, 1, 0, 0, 1, 0, 100,         0,         0, 1, 1, 0, 1, 0, 1, 0, 1, 0, 1
   132,  2,         0,         0,         0,         0,  1.09091, 0,       0, 0, 1, 0, 0, 1, 0, 100,         0,         0, 1, 1, 0, 1, 0, 1, 0, 1, 0, 1
   133,  1,         0,         0,         0,         0,  1.09091, 0,       0, 0, 1, 0, 0, 1, 0, 100,         0,         0, 1, 1, 0, 1, 0, 1, 0, 1, 0, 1
   133,  2,         0,         0,         0,         0,  1.09091, 0,       0, 0, 1, 0, 0, 1, 0, 100,         0,         0, 1, 1, 0, 1, 0, 1, 0, 1, 0, 1
   134,  1,         0,         0,        90,         0,  1.08882, 0,     150, 0, 1, 0, 0, 1, 0, 100,       120,       102, 1, 1, 0, 1, 0, 1, 0, 1, 0, 1
   134,  2,       120,   60.3687,    90.001,         0,  1.08882, 0,     150, 0, 1, 0, 0, 1, 1, 100,       120,       100, 1, 1, 0, 1, 0, 1, 0, 1, 0, 1
   135,  1,         0,         0,        90,         0,  1.08867, 0,     150, 0, 1, 0, 0, 1, 0, 100,       120,       102, 1, 1, 0, 1, 0, 1, 0, 1, 0, 1
   146,  1,        50,    -0.001,        12,    -0.001,  1.09012, 0,    51.4, 0, 1, 0, 0, 1, 1, 100,        50,        30, 1, 1, 0, 1, 0, 1, 0, 1, 0, 1
   146,  2,   34.2659,    -0.001,        12,    -0.001,  1.09012, 0,    51.4, 0, 1, 0, 0, 1, 1, 100,        50,        30, 1, 1, 0, 1, 0, 1, 0, 1, 0, 1
   147,  1,         0,         0,        90,         0,  1.09011, 0,     150, 0, 1, 0, 0, 1, 0, 100,       120,        90, 1, 1, 0, 1, 0, 1, 0, 1, 0, 1
   148,  1,        90,         0,       120,         0,  1.09091, 0,   252.4, 0, 1, 0, 0, 1, 1, 100,       222,        90, 1, 1, 0, 1, 0, 1, 0, 1, 0, 1
   148,  2,         0,         0,       120,         0,  1.09091, 0,   237.5, 0, 1, 0, 0, 1, 0, 100,       205,       135, 1, 1, 0, 1, 0, 1, 0, 1, 0, 1
   148,  3,         0,         0,       120,         0,  1.09091, 0,   237.5, 0, 1, 0, 0, 1, 0, 100,       205,       135, 1, 1, 0, 1, 0, 1, 0, 1, 0, 1
   148,  4,        90,         0,       120,         0,  1.09091, 0,   252.4, 0, 1, 0, 0, 1, 1, 100,       222,        90, 1, 1, 0, 1, 0, 1, 0, 1, 0, 1
   150,  1,        90,         0,       120,         0,  1.03246, 0,   252.4, 0, 1, 0, 0, 1, 1, 100,       222,        90, 1, 1, 0, 1, 0, 1, 0, 1, 0, 1
   151,  1,        90,         0,       120,         0,   1.0325, 0,   252.4, 0, 1, 0, 0, 1, 1, 100,       222,        90, 1, 1, 0, 1, 0, 1, 0, 1, 0, 1
   151,  2,         0,         0,       120,         0,   1.0325, 0,   252.4, 0, 1, 0, 0, 1, 0, 100,       222,        90, 1, 1, 0, 1, 0, 1, 0, 1, 0, 1
   155,  1,        94,   24.7759,       120,         0,  1.09091, 0,   263.9, 0, 1, 0, 0, 1, 1, 100,       235,        94, 1, 1, 0, 1, 0, 1, 0, 1, 0, 1
   155,  2,        94,   24.7759,       120,         0,  1.09091, 0,   263.9, 0, 1, 0, 0, 1, 1, 100,       235,        94, 1, 1, 0, 1, 0, 1, 0, 1, 0, 1
   155,  3,         0,         0,       120,         0,  1.09091, 0,   237.5, 0, 1, 0, 0, 1, 0, 100,       205,       130, 1, 1, 0, 1, 0, 1, 0, 1, 0, 1
   155,  4,       104,         0,       120,         0,  1.09091, 0,   287.3, 0, 1, 0, 0, 1, 1, 100,       261,       104, 1, 1, 0, 1, 0, 1, 0, 1, 0, 1
   156,  1,         0,         0,       120,         0,  1.09091, 0,   237.5, 0, 1, 0, 0, 1, 0, 100,       205,       130, 1, 1, 0, 1, 0, 1, 0, 1, 0, 1
   156,  2,       130,         0,       120,         0,  1.09091, 0,   237.5, 0, 1, 0, 0, 1, 1, 100,       205,       130, 1, 1, 0, 1, 0, 1, 0, 1, 0, 1
   156,  3,       120,   48.0433,       120,         0,  1.09091, 0,   238.4, 0, 1, 0, 0, 1, 1, 100,       206,       120, 1, 1, 0, 1, 0, 1, 0, 1, 0, 1
   156,  4,       120,         0,       120,         0,  1.09091, 0,   238.4, 0, 1, 0, 0, 1, 1, 100,       206,       120, 1, 1, 0, 1, 0, 1, 0, 1, 0, 1
   159,  1,       120,         0,       120,         0,  1.00535, 0,   238.4, 0, 1, 0, 0, 1, 1, 100,       206,       120, 1, 1, 0, 1, 0, 1, 0, 1, 0, 1
   165,  1,       200,   64.1328,       120,         0,  1.09084, 0,   233.2, 0, 1, 0, 0, 1, 1, 100,       200,       150, 1, 1, 0, 1, 0, 1, 0, 1, 0, 1
   165,  2,         0,         0,       120,         0,  1.09084, 0,   233.2, 0, 1, 0, 0, 1, 0, 100,       200,       150, 1, 1, 0, 1, 0, 1, 0, 1, 0, 1
   166,  1,       200,         0,       120,         0,  1.09091, 0,   233.2, 0, 1, 0, 0, 1, 1, 100,       200,       150, 1, 1, 0, 1, 0, 1, 0, 1, 0, 1
   165,  3,         0,         0,       120,         0,  1.09084, 0,   233.2, 0, 1, 0, 0, 1, 0, 100,       200,       150, 1, 1, 0, 1, 0, 1, 0, 1, 0, 1
   205,  1,         0,   73.1915,        80,       -30,   1.0325, 0,   196.1, 0, 1, 0, 0, 1, 1, 100,         0,         0, 1, 1, 0, 1, 0, 1, 0, 1, 0, 1
   205,  2,         0,       -30,        80,       -30,   1.0325, 0,   196.1, 0, 1, 0, 0, 1, 1, 100,         0,         0, 1, 1, 0, 1, 0, 1, 0, 1, 0, 1
   205,  3,         0,       -30,        80,       -30,   1.0325, 0,   196.1, 0, 1, 0, 0, 1, 1, 100,         0,         0, 1, 1, 0, 1, 0, 1, 0, 1, 0, 1
   206,  1,         0,       -30,        80,       -30,   1.0325, 0,   196.1, 0, 1, 0, 0, 1, 1, 100,         0,         0, 1, 1, 0, 1, 0, 1, 0, 1, 0, 1
   215,  1,    37.079,         0,        20,         0,  1.08646, 0,    58.5, 0, 1, 0, 0, 1, 1, 100,    37.079,    37.079, 1, 1, 0, 1, 0, 1, 0, 1, 0, 1
   215,  2,    33.708,         0,        20,         0,  1.08646, 0,    53.9, 0, 1, 0, 0, 1, 1, 100,    33.708,    33.708, 1, 1, 0, 1, 0, 1, 0, 1, 0, 1
   215,  3,    33.708,         0,        20,         0,  1.08646, 0,    53.9, 0, 1, 0, 0, 1, 1, 100,    33.708,    33.708, 1, 1, 0, 1, 0, 1, 0, 1, 0, 1
   215,  4,    15.506,         0,        20,         0,  1.08646, 0,    30.5, 0, 1, 0, 0, 1, 1, 100,    15.506,    15.506, 1, 1, 0, 1, 0, 1, 0, 1, 0, 1
   229,  1,       5.5,       1.5,       1.5,         0,  1.06367, 0,     7.3, 0, 1, 0, 0, 1, 1, 100,       5.5,       5.5, 1, 1, 0, 1, 0, 1, 0, 1, 0, 1
   230,  1,       5.5,         7,         7,         0,  1.06392, 0,      10, 0, 1, 0, 0, 1, 1, 100,       5.5,       5.5, 1, 1, 0, 1, 0, 1, 0, 1, 0, 1
   239,  1,         3,         8,         8,         0,  1.03337, 0,    15.4, 0, 1, 0, 0, 1, 1, 100,         3,         3, 1, 1, 0, 1, 0, 1, 0, 1, 0, 1
   246,  1,       370,   135.153,       220,       -14,  1.03502, 0,   430.5, 0, 1, 0, 0, 1, 1, 100,       370,       290, 1, 1, 0, 1, 0, 1, 0, 1, 0, 1
   291,  1,         2,   1.18695,         2,         0,  1.06439, 0,     3.2, 0, 1, 0, 0, 1, 1, 100,         2,         2, 1, 1, 0, 1, 0, 1, 0, 1, 0, 1
   294,  1,         2,         2,         2,         0,  1.05278, 0,     4.8, 0, 1, 0, 0, 1, 1, 100,         2,         2, 1, 1, 0, 1, 0, 1, 0, 1, 0, 1
   306,  1,     9.167,         7,         7,         0,  1.05332, 0,      24, 0, 1, 0, 0, 1, 1, 100,     9.167,     9.167, 1, 1, 0, 1, 0, 1, 0, 1, 0, 1
   306,  2,    16.296,         7,         7,         0,  1.05332, 0,    27.9, 0, 1, 0, 0, 1, 1, 100,    16.296,    16.296, 1, 1, 0, 1, 0, 1, 0, 1, 0, 1
   306,  3,    11.204,     7.617,     7.617,         6,  1.05332, 0,      31, 0, 1, 0, 0, 1, 1, 100,    11.204,    11.204, 1, 1, 0, 1, 0, 1, 0, 1, 0, 1
   306,  4,     9.167,         7,         7,         0,  1.05332, 0,    26.9, 0, 1, 0, 0, 1, 1, 100,     9.167,     9.167, 1, 1, 0, 1, 0, 1, 0, 1, 0, 1
   306,  5,     9.167,     7.929,     7.929,         0,  1.05332, 0,    28.1, 0, 1, 0, 0, 1, 1, 100,     9.167,     9.167, 1, 1, 0, 1, 0, 1, 0, 1, 0, 1
   307,  1,      36.5,        15,        15,         0,  1.05854, 0,      57, 0, 1, 0, 0, 1, 1, 100,      36.5,      36.5, 1, 1, 0, 1, 0, 1, 0, 1, 0, 1
   307,  2,      36.5,        15,        15,         0,  1.05854, 0,      57, 0, 1, 0, 0, 1, 1, 100,      36.5,      36.5, 1, 1, 0, 1, 0, 1, 0, 1, 0, 1
   308,  1,        32,        15,        15,         0,    1.067, 0,    36.7, 0, 1, 0, 0, 1, 1, 100,        32,        32, 1, 1, 0, 1, 0, 1, 0, 1, 0, 1
   308,  2,        40,    13.385,    16.829,         0,    1.067, 0,    57.5, 0, 1, 0, 0, 1, 1, 100,        40,        40, 1, 1, 0, 1, 0, 1, 0, 1, 0, 1
   310,  1,        35,        20,        20,         0,  1.07303, 0,    53.9, 0, 1, 0, 0, 1, 1, 100,        35,        35, 1, 1, 0, 1, 0, 1, 0, 1, 0, 1
   310,  2,        75,    25.599,    25.599,         0,  1.07303, 0,   103.2, 0, 1, 0, 0, 1, 1, 100,        75,        75, 1, 1, 0, 1, 0, 1, 0, 1, 0, 1
   311,  1,        45,   36.9252,        40,         0,  1.06272, 0,      64, 0, 1, 0, 0, 1, 1, 100,        45,        45, 1, 1, 0, 1, 0, 1, 0, 1, 0, 1
   319,  1,         2,         3,         3,         0,  1.07001, 0,     4.1, 0, 1, 0, 0, 1, 1, 100,         2,         2, 1, 1, 0, 1, 0, 1, 0, 1, 0, 1
   345,  1,         1,         1,         1,         0,  1.04796, 0,     1.9, 0, 1, 0, 0, 1, 1, 100,         1,         1, 1, 1, 0, 1, 0, 1, 0, 1, 0, 1
   362,  1,        40,        12,        12,         0,  1.08888, 0,    47.8, 0, 1, 0, 0, 1, 1, 100,        40,        40, 1, 1, 0, 1, 0, 1, 0, 1, 0, 1
   363,  1,        40,        12,        12,         0,  1.06039, 0,    47.8, 0, 1, 0, 0, 1, 1, 100,        40,        40, 1, 1, 0, 1, 0, 1, 0, 1, 0, 1
   364,  1,         0,         0,        12,         0,   1.1049, 0,    47.8, 0, 1, 0, 0, 1, 0, 100,         0,         0, 1, 1, 0, 1, 0, 1, 0, 1, 0, 1
   364,  2,        46,        12,        12,         0,   1.1049, 0,      71, 0, 1, 0, 0, 1, 1, 100,        46,        46, 1, 1, 0, 1, 0, 1, 0, 1, 0, 1
   365,  1,        40,        12,        12,         0,  1.06981, 0,    47.8, 0, 1, 0, 0, 1, 1, 100,        40,        40, 1, 1, 0, 1, 0, 1, 0, 1, 0, 1
   365,  2,        40,        12,        12,         0,  1.06981, 0,    47.8, 0, 1, 0, 0, 1, 1, 100,        40,        40, 1, 1, 0, 1, 0, 1, 0, 1, 0, 1
   368,  1,         1,         1,         1,         0,  1.07107, 0,     1.9, 0, 1, 0, 0, 1, 1, 100,         1,         1, 1, 1, 0, 1, 0, 1, 0, 1, 0, 1
   382,  1,        15,        10,        10,         0,  1.08182, 0,    55.9, 0, 1, 0, 0, 1, 1, 100,        55,        15, 1, 1, 0, 1, 0, 1, 0, 1, 0, 1
   382,  2,       120,   39.2284,       120,       -10,  1.08182, 0,   255.9, 0, 1, 0, 0, 1, 1, 100,       226,       120, 1, 1, 0, 1, 0, 1, 0, 1, 0, 1
   383,  1,        15,         0,        10,         0,  1.10054, 0,    55.9, 0, 1, 0, 0, 1, 1, 100,        55,        15, 1, 1, 0, 1, 0, 1, 0, 1, 0, 1
   386,  1,       2.5,         2,         2,         0,  1.05805, 0,     4.8, 0, 1, 0, 0, 1, 1, 100,       2.5,       2.5, 1, 1, 0, 1, 0, 1, 0, 1, 0, 1
   395,  1,         1,         1,         1,         0,  1.06558, 0,     1.9, 0, 1, 0, 0, 1, 1, 100,         1,         1, 1, 1, 0, 1, 0, 1, 0, 1, 0, 1
   421,  1,         4,         4,         4,         0,  1.04857, 0,     7.7, 0, 1, 0, 0, 1, 1, 100,         4,         4, 1, 1, 0, 1, 0, 1, 0, 1, 0, 1
   426,  1,         3,         3,         3,         0,  1.07431, 0,     4.5, 0, 1, 0, 0, 1, 1, 100,         3,         3, 1, 1, 0, 1, 0, 1, 0, 1, 0, 1
   431,  1,         5,         8,         8,         0,  1.08943, 0,    13.6, 0, 1, 0, 0, 1, 1, 100,         5,         5, 1, 1, 0, 1, 0, 1, 0, 1, 0, 1
   440,  1,         2,         2,         2,         0,   1.0288, 0,     3.6, 0, 1, 0, 0, 1, 1, 100,         2,         2, 1, 1, 0, 1, 0, 1, 0, 1, 0, 1
   447,  1,       3.5,         0,        20,         0,   1.0498, 0,    21.3, 0, 1, 0, 0, 1, 1, 100,       3.5,       3.5, 1, 1, 0, 1, 0, 1, 0, 1, 0, 1
   447,  2,       3.5,         0,        20,         0,   1.0498, 0,    21.3, 0, 1, 0, 0, 1, 1, 100,       3.5,       3.5, 1, 1, 0, 1, 0, 1, 0, 1, 0, 1
   463,  1,         0,         0,         2,         0,   1.0465, 0,       4, 0, 1, 0, 0, 1, 1, 100,         0,         0, 1, 1, 0, 1, 0, 1, 0, 1, 0, 1
   482,  1,       1.4,       0.7,       0.7,         0,  1.02656, 0,     1.7, 0, 1, 0, 0, 1, 1, 100,       1.4,       1.4, 1, 1, 0, 1, 0, 1, 0, 1, 0, 1
   490,  1,         3,         3,         3,         0,  1.05535, 0,     5.3, 0, 1, 0, 0, 1, 1, 100,         3,         3, 1, 1, 0, 1, 0, 1, 0, 1, 0, 1
   522,  1,         0,         0,         1,         0,  1.06929, 0,     1.9, 0, 1, 0, 0, 1, 1, 100,         0,         0, 1, 1, 0, 1, 0, 1, 0, 1, 0, 1
   533,  1,       0.5,         1,         1,         0,  1.07198, 0,     1.9, 0, 1, 0, 0, 1, 1, 100,       0.5,       0.5, 1, 1, 0, 1, 0, 1, 0, 1, 0, 1
   534,  1,     35.89,        14,        14,         0,  1.06429, 0,    53.9, 0, 1, 0, 0, 1, 1, 100,     35.89,     35.89, 1, 1, 0, 1, 0, 1, 0, 1, 0, 1
   534,  2,    22.086,   9.23653,        14,         0,  1.06429, 0,    34.9, 0, 1, 0, 0, 1, 1, 100,    22.086,    22.086, 1, 1, 0, 1, 0, 1, 0, 1, 0, 1
   534,  3,    22.086,   9.23653,        14,         0,  1.06429, 0,    34.9, 0, 1, 0, 0, 1, 1, 100,    22.086,    22.086, 1, 1, 0, 1, 0, 1, 0, 1, 0, 1
   534,  4,    72.469,   11.4277,        14,         0,  1.06429, 0,   105.9, 0, 1, 0, 0, 1, 1, 100,    72.469,    72.469, 1, 1, 0, 1, 0, 1, 0, 1, 0, 1
   534,  5,    72.469,   11.4277,        14,         0,  1.06429, 0,   105.9, 0, 1, 0, 0, 1, 1, 100,    72.469,    72.469, 1, 1, 0, 1, 0, 1, 0, 1, 0, 1
   535,  1,    24.573,   14.7746,      17.5,         0,  1.05783, 0,    36.5, 0, 1, 0, 0, 1, 1, 100,    24.573,    24.573, 1, 1, 0, 1, 0, 1, 0, 1, 0, 1
   535,  2,    23.805,   14.8864,      17.5,         0,  1.05783, 0,    35.6, 0, 1, 0, 0, 1, 1, 100,    23.805,    23.805, 1, 1, 0, 1, 0, 1, 0, 1, 0, 1
   535,  3,     95.99,   15.7424,      17.5,         0,  1.05783, 0,   126.2, 0, 1, 0, 0, 1, 1, 100,     95.99,     95.99, 1, 1, 0, 1, 0, 1, 0, 1, 0, 1
   535,  4,    80.631,   8.02398,      17.5,         0,  1.05783, 0,   106.4, 0, 1, 0, 0, 1, 1, 100,    80.631,    80.631, 1, 1, 0, 1, 0, 1, 0, 1, 0, 1
   549,  1,         1,       0.7,       0.7,         0,   1.0394, 0,     1.7, 0, 1, 0, 0, 1, 1, 100,         1,         1, 1, 1, 0, 1, 0, 1, 0, 1, 0, 1
   557,  1,    25.724,     5.051,     5.051,         0,  1.04037, 0,    34.4, 0, 1, 0, 0, 1, 1, 100,    25.724,    25.724, 1, 1, 0, 1, 0, 1, 0, 1, 0, 1
   557,  2,    21.184,     5.051,     5.051,         0,  1.04037, 0,    28.5, 0, 1, 0, 0, 1, 1, 100,    21.184,    21.184, 1, 1, 0, 1, 0, 1, 0, 1, 0, 1
   557,  3,    19.671,         5,         5,         0,  1.04037, 0,    26.5, 0, 1, 0, 0, 1, 1, 100,    19.671,    19.671, 1, 1, 0, 1, 0, 1, 0, 1, 0, 1
   557,  4,    22.697,     5.051,     5.051,         0,  1.04037, 0,    30.4, 0, 1, 0, 0, 1, 1, 100,    22.697,    22.697, 1, 1, 0, 1, 0, 1, 0, 1, 0, 1
   557,  5,    25.724,     5.051,     5.051,         0,  1.04037, 0,    34.4, 0, 1, 0, 0, 1, 1, 100,    25.724,    25.724, 1, 1, 0, 1, 0, 1, 0, 1, 0, 1
   558,  1,    31.032,     5.064,     5.064,         0,  1.03685, 0,    34.4, 0, 1, 0, 0, 1, 1, 100,    31.032,    31.032, 1, 1, 0, 1, 0, 1, 0, 1, 0, 1
   558,  2,    31.032,     5.064,     5.064,         0,  1.03685, 0,    34.4, 0, 1, 0, 0, 1, 1, 100,    31.032,    31.032, 1, 1, 0, 1, 0, 1, 0, 1, 0, 1
   558,  3,    22.817,         5,         5,         0,  1.03685, 0,    26.5, 0, 1, 0, 0, 1, 1, 100,    22.817,    22.817, 1, 1, 0, 1, 0, 1, 0, 1, 0, 1
   558,  4,    30.119,     5.064,     5.064,         0,  1.03685, 0,    34.4, 0, 1, 0, 0, 1, 1, 100,    30.119,    30.119, 1, 1, 0, 1, 0, 1, 0, 1, 0, 1
   581,  1,         3,         3,         3,         0,   1.0494, 0,     5.3, 0, 1, 0, 0, 1, 1, 100,         3,         3, 1, 1, 0, 1, 0, 1, 0, 1, 0, 1
   594,  1,      2.07,         0,      1.08,         0,  1.06495, 0,     4.4, 0, 1, 0, 0, 1, 1, 100,      2.07,      2.07, 1, 1, 0, 1, 0, 1, 0, 1, 0, 1
   601,  1,      4.05,         0,       1.8,         0,  1.06191, 0,     4.4, 0, 1, 0, 0, 1, 1, 100,      4.05,      4.05, 1, 1, 0, 1, 0, 1, 0, 1, 0, 1
   622,  1,       110,    -0.001,        30,    -0.001,   1.0778, 0,     114, 0, 1, 0, 0, 1, 1, 100,       110,       110, 1, 1, 0, 1, 0, 1, 0, 1, 0, 1
   622,  2,         0,         0,        30,         0,   1.0778, 0,    65.3, 0, 1, 0, 0, 1, 0, 100,         0,         0, 1, 1, 0, 1, 0, 1, 0, 1, 0, 1
   626,  1,      2.25,         0,       0.9,         0,  1.07287, 0,     2.4, 0, 1, 0, 0, 1, 1, 100,      2.25,      2.25, 1, 1, 0, 1, 0, 1, 0, 1, 0, 1
   630,  1,       4.5,         0,      2.52,         0,  1.06945, 0,     5.2, 0, 1, 0, 0, 1, 1, 100,       4.5,       4.5, 1, 1, 0, 1, 0, 1, 0, 1, 0, 1
   631,  1,       5.4,         0,      2.52,         0,  1.06942, 0,       6, 0, 1, 0, 0, 1, 1, 100,       5.4,       5.4, 1, 1, 0, 1, 0, 1, 0, 1, 0, 1
   655,  1,      0.81,         0,      0.36,         0,  1.03169, 0,     0.9, 0, 1, 0, 0, 1, 1, 100,      0.81,      0.81, 1, 1, 0, 1, 0, 1, 0, 1, 0, 1
   660,  1,       135,   31.0861,       120,       -20,  1.08206, 0,     255, 0, 1, 0, 0, 1, 1, 100,       225,       135, 1, 1, 0, 1, 0, 1, 0, 1, 0, 1
   661,  1,       135,       -20,       120,       -20,  1.08182, 0,     255, 0, 1, 0, 0, 1, 1, 100,       225,       135, 1, 1, 0, 1, 0, 1, 0, 1, 0, 1
   667,  1,      1.89,         0,      0.72,         0,  1.03727, 0,       2, 0, 1, 0, 0, 1, 1, 100,      1.89,      1.89, 1, 1, 0, 1, 0, 1, 0, 1, 0, 1
   671,  1,      7.65,         0,       2.7,         0,  1.06812, 0,     8.6, 0, 1, 0, 0, 1, 1, 100,      7.65,      7.65, 1, 1, 0, 1, 0, 1, 0, 1, 0, 1
   673,  1,       2.7,         0,       0.9,         0,  1.06495, 0,     4.4, 0, 1, 0, 0, 1, 1, 100,       2.7,       2.7, 1, 1, 0, 1, 0, 1, 0, 1, 0, 1
   681,  1,       190,         0,        30,         0,  1.08024, 0,   192.4, 0, 1, 0, 0, 1, 1, 100,       190,       190, 1, 1, 0, 1, 0, 1, 0, 1, 0, 1
   681,  2,    24.998,         0,        30,         0,  1.08024, 0,    77.5, 0, 1, 0, 0, 1, 1, 100,    24.998,    24.998, 1, 1, 0, 1, 0, 1, 0, 1, 0, 1
   687,  1,         9,         0,       4.5,         0,  1.07512, 0,    10.1, 0, 1, 0, 0, 1, 1, 100,         9,         9, 1, 1, 0, 1, 0, 1, 0, 1, 0, 1
   699,  1,       5.4,         0,       2.7,         0,   1.0746, 0,       6, 0, 1, 0, 0, 1, 1, 100,       5.4,       5.4, 1, 1, 0, 1, 0, 1, 0, 1, 0, 1
   702,  1,       0.9,         0,       0.9,         0,   1.0721, 0,     1.3, 0, 1, 0, 0, 1, 1, 100,       0.9,       0.9, 1, 1, 0, 1, 0, 1, 0, 1, 0, 1
...